Circuit: * C:\Users\Joel\Desktop\cosas de la facu\Circuitos 1\TL2\Draft2.asc

Direct Newton iteration for .op point succeeded.

Date: Tue Oct 22 18:02:32 2019
Total elapsed time: 0.042 seconds.

tnom = 27
temp = 27
method = modified trap
totiter = 81
traniter = 74
tranpoints = 38
accept = 38
rejected = 0
matrix size = 8
fillins = 0
solver = Normal
Matrix Compiler1: 380 bytes object code size
Matrix Compiler2: 574 bytes object code size
