Circuit: * F:\Usuario Elias\Downloads\FIUBA\01 - En Curso\Circuitos I\Repos\TL2\Simulaciones\Draft2.asc

Direct Newton iteration for .op point succeeded.

Date: Tue Oct 22 20:34:21 2019
Total elapsed time: 0.357 seconds.

tnom = 27
temp = 27
method = modified trap
totiter = 100212
traniter = 100205
tranpoints = 50058
accept = 50048
rejected = 10
matrix size = 10
fillins = 0
solver = Normal
Matrix Compiler1: 462 bytes object code size  0.2/0.1/[0.1]
Matrix Compiler2: off  [0.1]/0.1/0.1

