Circuit: * F:\Usuario Elias\Downloads\FIUBA\01 - En Curso\Circuitos I\Repos\TL2\TL3\simulaciones\Draft2.asc

Direct Newton iteration for .op point succeeded.

Date: Sun Nov 10 23:38:57 2019
Total elapsed time: 0.095 seconds.

tnom = 27
temp = 27
method = modified trap
totiter = 2038
traniter = 2034
tranpoints = 1018
accept = 1018
rejected = 0
matrix size = 8
fillins = 0
solver = Normal
Matrix Compiler1: 540 bytes object code size  0.2/0.1/[0.1]
Matrix Compiler2: 642 bytes object code size  0.1/0.1/[0.1]

