Circuit: * F:\Usuario Elias\Downloads\FIUBA\01 - En Curso\Circuitos I\Repos\TL2\TL3\simulaciones\Draft1.asc

C3: both pins shorted together -- ignoring.
Direct Newton iteration for .op point succeeded.

Date: Sun Nov 10 23:45:09 2019
Total elapsed time: 0.096 seconds.

tnom = 27
temp = 27
method = modified trap
totiter = 2038
traniter = 2034
tranpoints = 1018
accept = 1018
rejected = 0
matrix size = 9
fillins = 4
solver = Normal
Matrix Compiler1: 1.02 KB object code size  0.3/0.2/[0.1]
Matrix Compiler2: 845 bytes object code size  0.1/0.2/[0.1]

