Circuit: * F:\Usuario Elias\Downloads\FIUBA\01 - En Curso\Circuitos I\Repos\TL2\TL3\simulaciones\simulacionV2.asc

C4: both pins shorted together -- ignoring.
Error on line 1092 : .model mos2 nmos (kp=200m vto=-1 w/l=1)
	* Unrecognized parameter "w/l" -- ignored
Error on line 1091 : .model mos1 nmos (kp=15m vto=-1 w/l=1)
	* Unrecognized parameter "w/l" -- ignored
WARNING: Node N002 is floating.

Direct Newton iteration for .op point succeeded.

Date: Wed Dec 04 21:27:41 2019
Total elapsed time: 0.062 seconds.

tnom = 27
temp = 27
method = modified trap
totiter = 2060
traniter = 2036
tranpoints = 1019
accept = 1018
rejected = 1
matrix size = 17
fillins = 2
solver = Normal
Matrix Compiler1: 1.18 KB object code size  0.4/0.2/[0.2]
Matrix Compiler2: off  [0.2]/0.2/0.2

