Circuit: * E:\Circuitos I\Repos\TL3\simulaciones\simulacionV2.asc

C4: both pins shorted together -- ignoring.
Error on line 1089 : .model mos2 nmos (kp=200m vto=-1 w/l=1)
	* Unrecognized parameter "w/l" -- ignored
Error on line 1088 : .model mos1 nmos (kp=15m vto=-1 w/l=1)
	* Unrecognized parameter "w/l" -- ignored
WARNING: Node N002 is floating.

Direct Newton iteration for .op point succeeded.

Date: Mon Sep 02 20:07:33 2019
Total elapsed time: 0.376 seconds.

tnom = 27
temp = 27
method = trap
totiter = 24
traniter = 0
tranpoints = 0
accept = 0
rejected = 0
matrix size = 14
fillins = 0
solver = Normal
Matrix Compiler1:      48 opcodes
Matrix Compiler2: 1.05 KB object code size
