Circuit: * E:\Circuitos I\Repos\TL3\simulaciones\simulacionV2.asc

C4: both pins shorted together -- ignoring.
Error on line 1091 : .model mos2 nmos (kp=200m vto=-1 w/l=1)
	* Unrecognized parameter "w/l" -- ignored
Error on line 1090 : .model mos1 nmos (kp=15m vto=-1 w/l=1)
	* Unrecognized parameter "w/l" -- ignored
WARNING: Node N002 is floating.

Direct Newton iteration for .op point succeeded.

Date: Mon Sep 02 19:59:29 2019
Total elapsed time: 1.000 seconds.

tnom = 27
temp = 27
method = trap
totiter = 24
traniter = 0
tranpoints = 0
accept = 0
rejected = 0
matrix size = 15
fillins = 2
solver = Normal
Matrix Compiler1:      63 opcodes
Matrix Compiler2: 1.11 KB object code size
