Circuit: * F:\Usuario Elias\Downloads\FIUBA\01 - En Curso\Circuitos I\Repos\TL2\TL3\simulaciones\simulacionV2.asc

C4: both pins shorted together -- ignoring.
Error on line 1092 : .model mos2 nmos (kp=200m vto=-1 w/l=1)
	* Unrecognized parameter "w/l" -- ignored
Error on line 1091 : .model mos1 nmos (kp=15m vto=-1 w/l=1)
	* Unrecognized parameter "w/l" -- ignored
WARNING: Node N002 is floating.

Direct Newton iteration for .op point succeeded.

Date: Fri Dec 06 08:34:17 2019
Total elapsed time: 0.111 seconds.

tnom = 27
temp = 27
method = trap
totiter = 24
traniter = 0
tranpoints = 0
accept = 0
rejected = 0
matrix size = 17
fillins = 2
solver = Normal
Matrix Compiler1:      66 opcodes
Matrix Compiler2: 1.24 KB object code size
