Circuit: * F:\Usuario Elias\Downloads\FIUBA\01 - En Curso\Circuitos I\Repos\TL2\sims\D\oscilador.asc

Direct Newton iteration for .op point succeeded.

Date: Fri Oct 18 08:50:30 2019
Total elapsed time: 0.054 seconds.

tnom = 27
temp = 27
method = modified trap
totiter = 3161
traniter = 3154
tranpoints = 1243
accept = 1055
rejected = 188
matrix size = 8
fillins = 4
solver = Normal
Matrix Compiler1: 638 bytes object code size  0.2/0.1/[0.1]
Matrix Compiler2: off  [0.1]/0.2/0.1

