Circuit: * F:\Usuario Elias\Downloads\FIUBA\01 - En Curso\Circuitos I\Repos\TL2\sims\D\oscilador.asc

Direct Newton iteration for .op point succeeded.

Date: Thu Oct 17 12:51:06 2019
Total elapsed time: 0.041 seconds.

tnom = 27
temp = 27
method = modified trap
totiter = 4292
traniter = 4285
tranpoints = 1658
accept = 1398
rejected = 260
matrix size = 8
fillins = 4
solver = Normal
Matrix Compiler1: 638 bytes object code size  0.3/0.1/[0.1]
Matrix Compiler2: 710 bytes object code size  0.1/0.1/[0.1]

