Circuit: * F:\Usuario Elias\Downloads\FIUBA\01 - En Curso\Circuitos I\Repos\TL2\sims\D\Draft1.asc

Direct Newton iteration for .op point succeeded.

Date: Sat Nov 02 16:29:54 2019
Total elapsed time: 0.809 seconds.

tnom = 27
temp = 27
method = modified trap
totiter = 20047
traniter = 20034
tranpoints = 10018
accept = 10018
rejected = 0
matrix size = 8
fillins = 0
solver = Normal
Matrix Compiler1: 380 bytes object code size  0.2/0.1/[0.1]
Matrix Compiler2: off  [0.1]/0.1/0.1

